32
symmetry c1
C        0.478177725      1.084273045     -8.218328979
H        0.041862331      2.017302998     -7.893546001
H        1.536399730      1.087402652     -8.002559669
H        0.327815796      0.967208899     -9.281384611
C       -0.194197076     -0.083753450     -7.473193937
H       -0.964530349      0.053145121     -6.728717322
H        0.656206719      0.103285535     -6.834265300
C       -0.193588228     -1.494980029     -8.089667110
H       -1.075018545     -1.621143512     -8.700865417
H        0.688540881     -1.621213205     -8.699842020
C       -0.194249611     -2.546605626     -6.964641259
H        0.687215559     -2.420440859     -6.353493482
H       -1.076343937     -2.420749928     -6.354338101
C       -0.193740073     -3.957832214     -7.581114500
H       -1.075240092     -4.083975785     -8.192216386
H        0.688319434     -4.084085312     -8.191385900
C       -0.194302146     -5.009457802     -6.456088586
H        0.687232720     -4.883312949     -5.845037234
H       -1.076326864     -4.883582184     -5.845688941
C       -0.193891918     -6.420684398     -7.072561884
H       -1.075461628     -6.546808054     -7.683567342
H        0.688097975     -6.546957416     -7.682929767
C       -0.194354681     -7.472309980     -5.947535919
H        0.687249870     -7.346185041     -5.336580998
H       -1.076309780     -7.346414442     -5.337039795
C       -0.194043763     -8.883536581     -6.564009263
H       -1.075683153     -9.009640321     -7.174918285
H        0.687876506     -9.009829517     -7.174473621
C       -0.194407216     -9.935162158     -5.438983257
H       -1.212685946    -10.187423466     -5.182326558
H        0.322346440    -10.822017862     -5.774918698
H        0.306838700     -9.533537232     -4.570737929

