49
Structure 5P1 extracted from SI (pages S84â€“S86)
N -1.80774000 -1.21218000 -0.21888600
N -1.41828300 1.66749000 -0.54496600
N 1.46277200 1.28827400 -0.84921400
N 1.05598400 -1.60190200 -0.65954400
C -1.77970200 -2.56996800 -0.17281800
C -3.10389600 -0.82009400 -0.10791000
C 0.67435100 -2.90265500 -0.53042200
C 2.40252900 -1.58178100 -0.86049800
C 2.74697100 0.88980900 -1.04312800
C 1.42338600 2.63936500 -0.98282300
C -1.04031500 2.96660700 -0.69942700
C -2.76826200 1.64623800 -0.36397400
C 0.26825700 3.41560600 -0.89645100
H 0.39493500 4.48755700 -1.01337600
C -3.54397900 0.50262400 -0.15740700
H -4.61179800 0.66198600 -0.04229800
C -0.62969300 -3.34887900 -0.30015900
H -0.76345700 -4.42433200 -0.23339500
C 3.18262400 -0.43475700 -1.03052600
H 4.24415900 -0.59651900 -1.19111700
C 2.75928100 3.13338900 -1.25288100
C 3.57716700 2.05244000 -1.28980600
C 2.90060300 -2.93700900 -0.87173100
C 1.83333200 -3.75267100 -0.66817300
C -3.12843500 -3.07069900 0.00217200
C -3.94666200 -1.98947800 0.04235100
C -3.27509300 2.99715800 -0.41840300
C -2.20820100 3.81227700 -0.62563700
N 0.16011500 0.17063600 1.83684800
C 1.16870200 0.82194900 2.50790600
C -0.58441600 -0.40165000 2.75375700
H -1.46356000 -0.99750200 2.56381600
C 1.02978100 0.63945700 3.85275500
N -0.09749900 -0.14495000 3.98519200
H 1.92476300 1.37630100 1.97304300
C 1.82996100 1.11398400 5.01496900
H 2.67458000 1.70725700 4.66382000
H 1.23433100 1.74037800 5.68489900
H 2.22559800 0.27819000 5.59879900
H -0.49179600 -0.47183500 4.85155700
Fe -0.13996000 0.05432300 -0.30575400
H -2.20449600 4.88974200 -0.72223100
H -4.31459700 3.27762600 -0.31320600
H -5.02326800 -1.97415600 0.14778400
H -3.40321800 -4.11495200 0.06894200
H 1.82349200 -4.83321100 -0.61702700
H 3.93418300 -3.22001300 -1.01969700
H 4.64201400 2.03046300 -1.47949400
H 3.02181300 4.17156500 -1.40649400