45
symmetry c1
C       -4.770681000     -3.929920000     -5.997588000
C       -5.387423000     -5.182376000     -5.817394000
N       -4.778970000     -2.978684000     -5.055274000
H       -5.354183000     -5.949939000     -6.588614000
C       -6.052746000     -5.387142000     -4.616622000
C       -5.412331000     -3.208091000     -3.898093000
C       -6.093698000     -4.410529000     -3.631167000
H       -6.619173000     -4.571302000     -2.691517000
C       -4.097710000     -3.653371000     -7.277683000
C       -3.805391000     -2.464314000     -7.935926000
N       -3.679314000     -4.680927000     -8.080451000
N       -3.146623000     -4.226714000     -9.157354000
N       -3.210397000     -2.867810000     -9.102149000
C       -5.392104000     -2.164162000     -2.859833000
C       -4.508347000     -1.121496000     -2.606505000
N       -6.347854000     -2.140290000     -1.879407000
N       -6.136182000     -1.171103000     -1.063651000
N       -5.011420000     -0.526124000     -1.479478000
C       -2.704366000     -2.095761000    -10.175603000
C       -3.394238000     -2.057157000    -11.394884000
C       -1.487894000     -1.411396000    -10.051015000
C       -2.882561000     -1.331344000    -12.473270000
C       -0.975582000     -0.676341000    -11.121337000
C       -1.669864000     -0.648011000    -12.335821000
C       -4.532025000      0.589383000     -0.751588000
C       -3.966740000      0.405482000      0.517723000
C       -4.668842000      1.887313000     -1.262003000
C       -3.530758000      1.503961000      1.262735000
C       -4.225275000      2.988342000     -0.527784000
C       -3.667615000      2.794347000      0.740708000
I       -4.240870000     -0.472717000     -7.526652000
I       -2.708091000     -0.546562000     -3.474023000
F       -0.821939000     -1.444881000     -8.905188000
F        0.172132000     -0.021769000    -10.998790000
F       -1.183397000      0.040928000    -13.355715000
F       -3.538567000     -1.290192000    -13.625206000
F       -4.546707000     -2.693345000    -11.528009000
F       -5.209137000      2.076351000     -2.458020000
F       -4.348409000      4.215634000     -1.017022000
F       -3.256387000      3.836733000      1.444884000
F       -2.991867000      1.329116000      2.461931000
F       -3.824901000     -0.812885000      1.013564000
N       -6.740236000     -6.686381000     -4.379948000
O       -6.689373000     -7.512929000     -5.272757000
O       -7.304530000     -6.829776000     -3.310367000

